
---------- Begin Simulation Statistics ----------
simSeconds                                   0.229172                       # Number of seconds simulated (Second)
simTicks                                 229172038000                       # Number of ticks simulated (Tick)
finalTick                                229172038000                       # Number of ticks from beginning of simulation (restored from checkpoints and never reset) (Tick)
simFreq                                  1000000000000                       # The number of ticks per simulated second ((Tick/Second))
hostSeconds                                    623.92                       # Real time elapsed on the host (Second)
hostTickRate                                367308801                       # The number of ticks simulated per host second (ticks/s) ((Tick/Second))
hostMemory                                     698764                       # Number of bytes of host memory used (Byte)
simInsts                                     39999658                       # Number of instructions simulated (Count)
simOps                                       55111982                       # Number of ops (including micro ops) simulated (Count)
hostInstRate                                    64110                       # Simulator instruction rate (inst/s) ((Count/Second))
hostOpRate                                      88332                       # Simulator op (including micro ops) rate (op/s) ((Count/Second))
system.clk_domain.clock                          1000                       # Clock period in ticks (Tick)
system.cpu0.numCycles                       458344077                       # Number of cpu cycles simulated (Cycle)
system.cpu0.cpi                             22.917204                       # CPI: cycles per instruction (core level) ((Cycle/Count))
system.cpu0.ipc                              0.043635                       # IPC: instructions per cycle (core level) ((Count/Cycle))
system.cpu0.numWorkItemsStarted                     0                       # Number of work items this cpu started (Count)
system.cpu0.numWorkItemsCompleted                   0                       # Number of work items this cpu completed (Count)
system.cpu0.instsAdded                       30460157                       # Number of instructions added to the IQ (excludes non-spec) (Count)
system.cpu0.nonSpecInstsAdded                     103                       # Number of non-speculative instructions added to the IQ (Count)
system.cpu0.instsIssued                      30453989                       # Number of instructions issued (Count)
system.cpu0.squashedInstsIssued                    86                       # Number of squashed instructions issued (Count)
system.cpu0.squashedInstsExamined             2904031                       # Number of squashed instructions iterated over during squash; mainly for profiling (Count)
system.cpu0.squashedOperandsExamined          1083892                       # Number of squashed operands that are examined and possibly removed from graph (Count)
system.cpu0.squashedNonSpecRemoved                 61                       # Number of squashed non-spec instructions that were removed (Count)
system.cpu0.numIssuedDist::samples          458300589                       # Number of insts issued each cycle (Count)
system.cpu0.numIssuedDist::mean              0.066450                       # Number of insts issued each cycle (Count)
system.cpu0.numIssuedDist::stdev             0.457498                       # Number of insts issued each cycle (Count)
system.cpu0.numIssuedDist::underflows               0      0.00%      0.00% # Number of insts issued each cycle (Count)
system.cpu0.numIssuedDist::0                446729677     97.48%     97.48% # Number of insts issued each cycle (Count)
system.cpu0.numIssuedDist::1                  3246853      0.71%     98.18% # Number of insts issued each cycle (Count)
system.cpu0.numIssuedDist::2                  1041685      0.23%     98.41% # Number of insts issued each cycle (Count)
system.cpu0.numIssuedDist::3                  4632561      1.01%     99.42% # Number of insts issued each cycle (Count)
system.cpu0.numIssuedDist::4                  2280893      0.50%     99.92% # Number of insts issued each cycle (Count)
system.cpu0.numIssuedDist::5                   236045      0.05%     99.97% # Number of insts issued each cycle (Count)
system.cpu0.numIssuedDist::6                    26400      0.01%     99.98% # Number of insts issued each cycle (Count)
system.cpu0.numIssuedDist::7                    87914      0.02%    100.00% # Number of insts issued each cycle (Count)
system.cpu0.numIssuedDist::8                    18561      0.00%    100.00% # Number of insts issued each cycle (Count)
system.cpu0.numIssuedDist::overflows                0      0.00%    100.00% # Number of insts issued each cycle (Count)
system.cpu0.numIssuedDist::min_value                0                       # Number of insts issued each cycle (Count)
system.cpu0.numIssuedDist::max_value                8                       # Number of insts issued each cycle (Count)
system.cpu0.numIssuedDist::total            458300589                       # Number of insts issued each cycle (Count)
system.cpu0.statFuBusy::No_OpClass                  0      0.00%      0.00% # attempts to use FU when none available (Count)
system.cpu0.statFuBusy::IntAlu                  24566     99.56%     99.56% # attempts to use FU when none available (Count)
system.cpu0.statFuBusy::IntMult                     0      0.00%     99.56% # attempts to use FU when none available (Count)
system.cpu0.statFuBusy::IntDiv                      0      0.00%     99.56% # attempts to use FU when none available (Count)
system.cpu0.statFuBusy::FloatAdd                    0      0.00%     99.56% # attempts to use FU when none available (Count)
system.cpu0.statFuBusy::FloatCmp                    0      0.00%     99.56% # attempts to use FU when none available (Count)
system.cpu0.statFuBusy::FloatCvt                    0      0.00%     99.56% # attempts to use FU when none available (Count)
system.cpu0.statFuBusy::FloatMult                   0      0.00%     99.56% # attempts to use FU when none available (Count)
system.cpu0.statFuBusy::FloatMultAcc                0      0.00%     99.56% # attempts to use FU when none available (Count)
system.cpu0.statFuBusy::FloatDiv                    0      0.00%     99.56% # attempts to use FU when none available (Count)
system.cpu0.statFuBusy::FloatMisc                   0      0.00%     99.56% # attempts to use FU when none available (Count)
system.cpu0.statFuBusy::FloatSqrt                   0      0.00%     99.56% # attempts to use FU when none available (Count)
system.cpu0.statFuBusy::SimdAdd                     0      0.00%     99.56% # attempts to use FU when none available (Count)
system.cpu0.statFuBusy::SimdAddAcc                  0      0.00%     99.56% # attempts to use FU when none available (Count)
system.cpu0.statFuBusy::SimdAlu                    26      0.11%     99.66% # attempts to use FU when none available (Count)
system.cpu0.statFuBusy::SimdCmp                     0      0.00%     99.66% # attempts to use FU when none available (Count)
system.cpu0.statFuBusy::SimdCvt                     1      0.00%     99.67% # attempts to use FU when none available (Count)
system.cpu0.statFuBusy::SimdMisc                    0      0.00%     99.67% # attempts to use FU when none available (Count)
system.cpu0.statFuBusy::SimdMult                    0      0.00%     99.67% # attempts to use FU when none available (Count)
system.cpu0.statFuBusy::SimdMultAcc                 0      0.00%     99.67% # attempts to use FU when none available (Count)
system.cpu0.statFuBusy::SimdMatMultAcc              0      0.00%     99.67% # attempts to use FU when none available (Count)
system.cpu0.statFuBusy::SimdShift                   0      0.00%     99.67% # attempts to use FU when none available (Count)
system.cpu0.statFuBusy::SimdShiftAcc                0      0.00%     99.67% # attempts to use FU when none available (Count)
system.cpu0.statFuBusy::SimdDiv                     0      0.00%     99.67% # attempts to use FU when none available (Count)
system.cpu0.statFuBusy::SimdSqrt                    0      0.00%     99.67% # attempts to use FU when none available (Count)
system.cpu0.statFuBusy::SimdFloatAdd                0      0.00%     99.67% # attempts to use FU when none available (Count)
system.cpu0.statFuBusy::SimdFloatAlu                0      0.00%     99.67% # attempts to use FU when none available (Count)
system.cpu0.statFuBusy::SimdFloatCmp                0      0.00%     99.67% # attempts to use FU when none available (Count)
system.cpu0.statFuBusy::SimdFloatCvt                0      0.00%     99.67% # attempts to use FU when none available (Count)
system.cpu0.statFuBusy::SimdFloatDiv                0      0.00%     99.67% # attempts to use FU when none available (Count)
system.cpu0.statFuBusy::SimdFloatMisc               0      0.00%     99.67% # attempts to use FU when none available (Count)
system.cpu0.statFuBusy::SimdFloatMult               0      0.00%     99.67% # attempts to use FU when none available (Count)
system.cpu0.statFuBusy::SimdFloatMultAcc            0      0.00%     99.67% # attempts to use FU when none available (Count)
system.cpu0.statFuBusy::SimdFloatMatMultAcc            0      0.00%     99.67% # attempts to use FU when none available (Count)
system.cpu0.statFuBusy::SimdFloatSqrt               0      0.00%     99.67% # attempts to use FU when none available (Count)
system.cpu0.statFuBusy::SimdReduceAdd               0      0.00%     99.67% # attempts to use FU when none available (Count)
system.cpu0.statFuBusy::SimdReduceAlu               0      0.00%     99.67% # attempts to use FU when none available (Count)
system.cpu0.statFuBusy::SimdReduceCmp               0      0.00%     99.67% # attempts to use FU when none available (Count)
system.cpu0.statFuBusy::SimdFloatReduceAdd            0      0.00%     99.67% # attempts to use FU when none available (Count)
system.cpu0.statFuBusy::SimdFloatReduceCmp            0      0.00%     99.67% # attempts to use FU when none available (Count)
system.cpu0.statFuBusy::SimdAes                     0      0.00%     99.67% # attempts to use FU when none available (Count)
system.cpu0.statFuBusy::SimdAesMix                  0      0.00%     99.67% # attempts to use FU when none available (Count)
system.cpu0.statFuBusy::SimdSha1Hash                0      0.00%     99.67% # attempts to use FU when none available (Count)
system.cpu0.statFuBusy::SimdSha1Hash2               0      0.00%     99.67% # attempts to use FU when none available (Count)
system.cpu0.statFuBusy::SimdSha256Hash              0      0.00%     99.67% # attempts to use FU when none available (Count)
system.cpu0.statFuBusy::SimdSha256Hash2             0      0.00%     99.67% # attempts to use FU when none available (Count)
system.cpu0.statFuBusy::SimdShaSigma2               0      0.00%     99.67% # attempts to use FU when none available (Count)
system.cpu0.statFuBusy::SimdShaSigma3               0      0.00%     99.67% # attempts to use FU when none available (Count)
system.cpu0.statFuBusy::SimdPredAlu                 0      0.00%     99.67% # attempts to use FU when none available (Count)
system.cpu0.statFuBusy::Matrix                      0      0.00%     99.67% # attempts to use FU when none available (Count)
system.cpu0.statFuBusy::MatrixMov                   0      0.00%     99.67% # attempts to use FU when none available (Count)
system.cpu0.statFuBusy::MatrixOP                    0      0.00%     99.67% # attempts to use FU when none available (Count)
system.cpu0.statFuBusy::MemRead                    44      0.18%     99.85% # attempts to use FU when none available (Count)
system.cpu0.statFuBusy::MemWrite                   27      0.11%     99.96% # attempts to use FU when none available (Count)
system.cpu0.statFuBusy::FloatMemRead                1      0.00%     99.96% # attempts to use FU when none available (Count)
system.cpu0.statFuBusy::FloatMemWrite              10      0.04%    100.00% # attempts to use FU when none available (Count)
system.cpu0.statFuBusy::IprAccess                   0      0.00%    100.00% # attempts to use FU when none available (Count)
system.cpu0.statFuBusy::InstPrefetch                0      0.00%    100.00% # attempts to use FU when none available (Count)
system.cpu0.statFuBusy::VectorUnitStrideLoad            0      0.00%    100.00% # attempts to use FU when none available (Count)
system.cpu0.statFuBusy::VectorUnitStrideStore            0      0.00%    100.00% # attempts to use FU when none available (Count)
system.cpu0.statFuBusy::VectorUnitStrideMaskLoad            0      0.00%    100.00% # attempts to use FU when none available (Count)
system.cpu0.statFuBusy::VectorUnitStrideMaskStore            0      0.00%    100.00% # attempts to use FU when none available (Count)
system.cpu0.statFuBusy::VectorStridedLoad            0      0.00%    100.00% # attempts to use FU when none available (Count)
system.cpu0.statFuBusy::VectorStridedStore            0      0.00%    100.00% # attempts to use FU when none available (Count)
system.cpu0.statFuBusy::VectorIndexedLoad            0      0.00%    100.00% # attempts to use FU when none available (Count)
system.cpu0.statFuBusy::VectorIndexedStore            0      0.00%    100.00% # attempts to use FU when none available (Count)
system.cpu0.statFuBusy::VectorUnitStrideFaultOnlyFirstLoad            0      0.00%    100.00% # attempts to use FU when none available (Count)
system.cpu0.statFuBusy::VectorWholeRegisterLoad            0      0.00%    100.00% # attempts to use FU when none available (Count)
system.cpu0.statFuBusy::VectorWholeRegisterStore            0      0.00%    100.00% # attempts to use FU when none available (Count)
system.cpu0.statFuBusy::VectorIntegerArith            0      0.00%    100.00% # attempts to use FU when none available (Count)
system.cpu0.statFuBusy::VectorFloatArith            0      0.00%    100.00% # attempts to use FU when none available (Count)
system.cpu0.statFuBusy::VectorFloatConvert            0      0.00%    100.00% # attempts to use FU when none available (Count)
system.cpu0.statFuBusy::VectorIntegerReduce            0      0.00%    100.00% # attempts to use FU when none available (Count)
system.cpu0.statFuBusy::VectorFloatReduce            0      0.00%    100.00% # attempts to use FU when none available (Count)
system.cpu0.statFuBusy::VectorMisc                  0      0.00%    100.00% # attempts to use FU when none available (Count)
system.cpu0.statFuBusy::VectorIntegerExtension            0      0.00%    100.00% # attempts to use FU when none available (Count)
system.cpu0.statFuBusy::VectorConfig                0      0.00%    100.00% # attempts to use FU when none available (Count)
system.cpu0.statIssuedInstType_0::No_OpClass          472      0.00%      0.00% # Number of instructions issued per FU type, per thread (Count)
system.cpu0.statIssuedInstType_0::IntAlu     22182613     72.84%     72.84% # Number of instructions issued per FU type, per thread (Count)
system.cpu0.statIssuedInstType_0::IntMult           47      0.00%     72.84% # Number of instructions issued per FU type, per thread (Count)
system.cpu0.statIssuedInstType_0::IntDiv           83      0.00%     72.84% # Number of instructions issued per FU type, per thread (Count)
system.cpu0.statIssuedInstType_0::FloatAdd          167      0.00%     72.84% # Number of instructions issued per FU type, per thread (Count)
system.cpu0.statIssuedInstType_0::FloatCmp            0      0.00%     72.84% # Number of instructions issued per FU type, per thread (Count)
system.cpu0.statIssuedInstType_0::FloatCvt            0      0.00%     72.84% # Number of instructions issued per FU type, per thread (Count)
system.cpu0.statIssuedInstType_0::FloatMult            0      0.00%     72.84% # Number of instructions issued per FU type, per thread (Count)
system.cpu0.statIssuedInstType_0::FloatMultAcc            0      0.00%     72.84% # Number of instructions issued per FU type, per thread (Count)
system.cpu0.statIssuedInstType_0::FloatDiv            0      0.00%     72.84% # Number of instructions issued per FU type, per thread (Count)
system.cpu0.statIssuedInstType_0::FloatMisc            0      0.00%     72.84% # Number of instructions issued per FU type, per thread (Count)
system.cpu0.statIssuedInstType_0::FloatSqrt            0      0.00%     72.84% # Number of instructions issued per FU type, per thread (Count)
system.cpu0.statIssuedInstType_0::SimdAdd           10      0.00%     72.84% # Number of instructions issued per FU type, per thread (Count)
system.cpu0.statIssuedInstType_0::SimdAddAcc            0      0.00%     72.84% # Number of instructions issued per FU type, per thread (Count)
system.cpu0.statIssuedInstType_0::SimdAlu          305      0.00%     72.84% # Number of instructions issued per FU type, per thread (Count)
system.cpu0.statIssuedInstType_0::SimdCmp            4      0.00%     72.84% # Number of instructions issued per FU type, per thread (Count)
system.cpu0.statIssuedInstType_0::SimdCvt           84      0.00%     72.84% # Number of instructions issued per FU type, per thread (Count)
system.cpu0.statIssuedInstType_0::SimdMisc          257      0.00%     72.84% # Number of instructions issued per FU type, per thread (Count)
system.cpu0.statIssuedInstType_0::SimdMult            0      0.00%     72.84% # Number of instructions issued per FU type, per thread (Count)
system.cpu0.statIssuedInstType_0::SimdMultAcc            0      0.00%     72.84% # Number of instructions issued per FU type, per thread (Count)
system.cpu0.statIssuedInstType_0::SimdMatMultAcc            0      0.00%     72.84% # Number of instructions issued per FU type, per thread (Count)
system.cpu0.statIssuedInstType_0::SimdShift            7      0.00%     72.84% # Number of instructions issued per FU type, per thread (Count)
system.cpu0.statIssuedInstType_0::SimdShiftAcc            0      0.00%     72.84% # Number of instructions issued per FU type, per thread (Count)
system.cpu0.statIssuedInstType_0::SimdDiv            0      0.00%     72.84% # Number of instructions issued per FU type, per thread (Count)
system.cpu0.statIssuedInstType_0::SimdSqrt            0      0.00%     72.84% # Number of instructions issued per FU type, per thread (Count)
system.cpu0.statIssuedInstType_0::SimdFloatAdd            0      0.00%     72.84% # Number of instructions issued per FU type, per thread (Count)
system.cpu0.statIssuedInstType_0::SimdFloatAlu            0      0.00%     72.84% # Number of instructions issued per FU type, per thread (Count)
system.cpu0.statIssuedInstType_0::SimdFloatCmp            0      0.00%     72.84% # Number of instructions issued per FU type, per thread (Count)
system.cpu0.statIssuedInstType_0::SimdFloatCvt            0      0.00%     72.84% # Number of instructions issued per FU type, per thread (Count)
system.cpu0.statIssuedInstType_0::SimdFloatDiv            0      0.00%     72.84% # Number of instructions issued per FU type, per thread (Count)
system.cpu0.statIssuedInstType_0::SimdFloatMisc            0      0.00%     72.84% # Number of instructions issued per FU type, per thread (Count)
system.cpu0.statIssuedInstType_0::SimdFloatMult            0      0.00%     72.84% # Number of instructions issued per FU type, per thread (Count)
system.cpu0.statIssuedInstType_0::SimdFloatMultAcc            0      0.00%     72.84% # Number of instructions issued per FU type, per thread (Count)
system.cpu0.statIssuedInstType_0::SimdFloatMatMultAcc            0      0.00%     72.84% # Number of instructions issued per FU type, per thread (Count)
system.cpu0.statIssuedInstType_0::SimdFloatSqrt            0      0.00%     72.84% # Number of instructions issued per FU type, per thread (Count)
system.cpu0.statIssuedInstType_0::SimdReduceAdd            0      0.00%     72.84% # Number of instructions issued per FU type, per thread (Count)
system.cpu0.statIssuedInstType_0::SimdReduceAlu            0      0.00%     72.84% # Number of instructions issued per FU type, per thread (Count)
system.cpu0.statIssuedInstType_0::SimdReduceCmp            0      0.00%     72.84% # Number of instructions issued per FU type, per thread (Count)
system.cpu0.statIssuedInstType_0::SimdFloatReduceAdd            0      0.00%     72.84% # Number of instructions issued per FU type, per thread (Count)
system.cpu0.statIssuedInstType_0::SimdFloatReduceCmp            0      0.00%     72.84% # Number of instructions issued per FU type, per thread (Count)
system.cpu0.statIssuedInstType_0::SimdAes            0      0.00%     72.84% # Number of instructions issued per FU type, per thread (Count)
system.cpu0.statIssuedInstType_0::SimdAesMix            0      0.00%     72.84% # Number of instructions issued per FU type, per thread (Count)
system.cpu0.statIssuedInstType_0::SimdSha1Hash            0      0.00%     72.84% # Number of instructions issued per FU type, per thread (Count)
system.cpu0.statIssuedInstType_0::SimdSha1Hash2            0      0.00%     72.84% # Number of instructions issued per FU type, per thread (Count)
system.cpu0.statIssuedInstType_0::SimdSha256Hash            0      0.00%     72.84% # Number of instructions issued per FU type, per thread (Count)
system.cpu0.statIssuedInstType_0::SimdSha256Hash2            0      0.00%     72.84% # Number of instructions issued per FU type, per thread (Count)
system.cpu0.statIssuedInstType_0::SimdShaSigma2            0      0.00%     72.84% # Number of instructions issued per FU type, per thread (Count)
system.cpu0.statIssuedInstType_0::SimdShaSigma3            0      0.00%     72.84% # Number of instructions issued per FU type, per thread (Count)
system.cpu0.statIssuedInstType_0::SimdPredAlu            0      0.00%     72.84% # Number of instructions issued per FU type, per thread (Count)
system.cpu0.statIssuedInstType_0::Matrix            0      0.00%     72.84% # Number of instructions issued per FU type, per thread (Count)
system.cpu0.statIssuedInstType_0::MatrixMov            0      0.00%     72.84% # Number of instructions issued per FU type, per thread (Count)
system.cpu0.statIssuedInstType_0::MatrixOP            0      0.00%     72.84% # Number of instructions issued per FU type, per thread (Count)
system.cpu0.statIssuedInstType_0::MemRead      2766347      9.08%     81.93% # Number of instructions issued per FU type, per thread (Count)
system.cpu0.statIssuedInstType_0::MemWrite      5502854     18.07%    100.00% # Number of instructions issued per FU type, per thread (Count)
system.cpu0.statIssuedInstType_0::FloatMemRead          164      0.00%    100.00% # Number of instructions issued per FU type, per thread (Count)
system.cpu0.statIssuedInstType_0::FloatMemWrite          575      0.00%    100.00% # Number of instructions issued per FU type, per thread (Count)
system.cpu0.statIssuedInstType_0::IprAccess            0      0.00%    100.00% # Number of instructions issued per FU type, per thread (Count)
system.cpu0.statIssuedInstType_0::InstPrefetch            0      0.00%    100.00% # Number of instructions issued per FU type, per thread (Count)
system.cpu0.statIssuedInstType_0::VectorUnitStrideLoad            0      0.00%    100.00% # Number of instructions issued per FU type, per thread (Count)
system.cpu0.statIssuedInstType_0::VectorUnitStrideStore            0      0.00%    100.00% # Number of instructions issued per FU type, per thread (Count)
system.cpu0.statIssuedInstType_0::VectorUnitStrideMaskLoad            0      0.00%    100.00% # Number of instructions issued per FU type, per thread (Count)
system.cpu0.statIssuedInstType_0::VectorUnitStrideMaskStore            0      0.00%    100.00% # Number of instructions issued per FU type, per thread (Count)
system.cpu0.statIssuedInstType_0::VectorStridedLoad            0      0.00%    100.00% # Number of instructions issued per FU type, per thread (Count)
system.cpu0.statIssuedInstType_0::VectorStridedStore            0      0.00%    100.00% # Number of instructions issued per FU type, per thread (Count)
system.cpu0.statIssuedInstType_0::VectorIndexedLoad            0      0.00%    100.00% # Number of instructions issued per FU type, per thread (Count)
system.cpu0.statIssuedInstType_0::VectorIndexedStore            0      0.00%    100.00% # Number of instructions issued per FU type, per thread (Count)
system.cpu0.statIssuedInstType_0::VectorUnitStrideFaultOnlyFirstLoad            0      0.00%    100.00% # Number of instructions issued per FU type, per thread (Count)
system.cpu0.statIssuedInstType_0::VectorWholeRegisterLoad            0      0.00%    100.00% # Number of instructions issued per FU type, per thread (Count)
system.cpu0.statIssuedInstType_0::VectorWholeRegisterStore            0      0.00%    100.00% # Number of instructions issued per FU type, per thread (Count)
system.cpu0.statIssuedInstType_0::VectorIntegerArith            0      0.00%    100.00% # Number of instructions issued per FU type, per thread (Count)
system.cpu0.statIssuedInstType_0::VectorFloatArith            0      0.00%    100.00% # Number of instructions issued per FU type, per thread (Count)
system.cpu0.statIssuedInstType_0::VectorFloatConvert            0      0.00%    100.00% # Number of instructions issued per FU type, per thread (Count)
system.cpu0.statIssuedInstType_0::VectorIntegerReduce            0      0.00%    100.00% # Number of instructions issued per FU type, per thread (Count)
system.cpu0.statIssuedInstType_0::VectorFloatReduce            0      0.00%    100.00% # Number of instructions issued per FU type, per thread (Count)
system.cpu0.statIssuedInstType_0::VectorMisc            0      0.00%    100.00% # Number of instructions issued per FU type, per thread (Count)
system.cpu0.statIssuedInstType_0::VectorIntegerExtension            0      0.00%    100.00% # Number of instructions issued per FU type, per thread (Count)
system.cpu0.statIssuedInstType_0::VectorConfig            0      0.00%    100.00% # Number of instructions issued per FU type, per thread (Count)
system.cpu0.statIssuedInstType_0::total      30453989                       # Number of instructions issued per FU type, per thread (Count)
system.cpu0.issueRate                        0.066444                       # Inst issue rate ((Count/Cycle))
system.cpu0.fuBusy                              24675                       # FU busy when requested (Count)
system.cpu0.fuBusyRate                       0.000810                       # FU busy rate (busy events/executed inst) ((Count/Count))
system.cpu0.intInstQueueReads               519229794                       # Number of integer instruction queue reads (Count)
system.cpu0.intInstQueueWrites               33362216                       # Number of integer instruction queue writes (Count)
system.cpu0.intInstQueueWakeupAccesses       30188667                       # Number of integer instruction queue wakeup accesses (Count)
system.cpu0.fpInstQueueReads                     3534                       # Number of floating instruction queue reads (Count)
system.cpu0.fpInstQueueWrites                    2129                       # Number of floating instruction queue writes (Count)
system.cpu0.fpInstQueueWakeupAccesses            1715                       # Number of floating instruction queue wakeup accesses (Count)
system.cpu0.vecInstQueueReads                       0                       # Number of vector instruction queue reads (Count)
system.cpu0.vecInstQueueWrites                      0                       # Number of vector instruction queue writes (Count)
system.cpu0.vecInstQueueWakeupAccesses              0                       # Number of vector instruction queue wakeup accesses (Count)
system.cpu0.intAluAccesses                   30476406                       # Number of integer alu accesses (Count)
system.cpu0.fpAluAccesses                        1786                       # Number of floating point alu accesses (Count)
system.cpu0.vecAluAccesses                          0                       # Number of vector alu accesses (Count)
system.cpu0.numSquashedInsts                      914                       # Number of squashed instructions skipped in execute (Count)
system.cpu0.numSwp                                  0                       # Number of swp insts executed (Count)
system.cpu0.timesIdled                            366                       # Number of times that the entire CPU went into an idle state and unscheduled itself (Count)
system.cpu0.idleCycles                          43488                       # Total number of cycles that the CPU has spent unscheduled due to idling (Cycle)
system.cpu0.MemDepUnit__0.insertedLoads       2767100                       # Number of loads inserted to the mem dependence unit. (Count)
system.cpu0.MemDepUnit__0.insertedStores      5503879                       # Number of stores inserted to the mem dependence unit. (Count)
system.cpu0.MemDepUnit__0.conflictingLoads      1787952                       # Number of conflicting loads. (Count)
system.cpu0.MemDepUnit__0.conflictingStores       230139                       # Number of conflicting stores. (Count)
system.cpu0.MemDepUnit__1.insertedLoads             0                       # Number of loads inserted to the mem dependence unit. (Count)
system.cpu0.MemDepUnit__1.insertedStores            0                       # Number of stores inserted to the mem dependence unit. (Count)
system.cpu0.MemDepUnit__1.conflictingLoads            0                       # Number of conflicting loads. (Count)
system.cpu0.MemDepUnit__1.conflictingStores            0                       # Number of conflicting stores. (Count)
system.cpu0.MemDepUnit__2.insertedLoads             0                       # Number of loads inserted to the mem dependence unit. (Count)
system.cpu0.MemDepUnit__2.insertedStores            0                       # Number of stores inserted to the mem dependence unit. (Count)
system.cpu0.MemDepUnit__2.conflictingLoads            0                       # Number of conflicting loads. (Count)
system.cpu0.MemDepUnit__2.conflictingStores            0                       # Number of conflicting stores. (Count)
system.cpu0.MemDepUnit__3.insertedLoads             0                       # Number of loads inserted to the mem dependence unit. (Count)
system.cpu0.MemDepUnit__3.insertedStores            0                       # Number of stores inserted to the mem dependence unit. (Count)
system.cpu0.MemDepUnit__3.conflictingLoads            0                       # Number of conflicting loads. (Count)
system.cpu0.MemDepUnit__3.conflictingStores            0                       # Number of conflicting stores. (Count)
system.cpu0.branchPred.lookups                2864388                       # Number of BP lookups (Count)
system.cpu0.branchPred.condPredicted          2853173                       # Number of conditional branches predicted (Count)
system.cpu0.branchPred.condIncorrect              773                       # Number of conditional branches incorrect (Count)
system.cpu0.branchPred.BTBLookups             2838747                       # Number of BTB lookups (Count)
system.cpu0.branchPred.BTBUpdates                 648                       # Number of BTB updates (Count)
system.cpu0.branchPred.BTBHits                2838323                       # Number of BTB hits (Count)
system.cpu0.branchPred.BTBHitRatio           0.999851                       # BTB Hit Ratio (Ratio)
system.cpu0.branchPred.RASUsed                   2584                       # Number of times the RAS was used to get a target. (Count)
system.cpu0.branchPred.RASIncorrect                 9                       # Number of incorrect RAS predictions. (Count)
system.cpu0.branchPred.indirectLookups           2376                       # Number of indirect predictor lookups. (Count)
system.cpu0.branchPred.indirectHits              2176                       # Number of indirect target hits. (Count)
system.cpu0.branchPred.indirectMisses             200                       # Number of indirect misses. (Count)
system.cpu0.branchPred.indirectMispredicted           63                       # Number of mispredicted indirect branches. (Count)
system.cpu0.branchPred.loop_predictor.correct      2504792                       # Number of times the loop predictor is the provider and the prediction is correct (Count)
system.cpu0.branchPred.loop_predictor.wrong         1865                       # Number of times the loop predictor is the provider and the prediction is wrong (Count)
system.cpu0.branchPred.tage.longestMatchProviderCorrect      1441754                       # Number of times TAGE Longest Match is the provider and the prediction is correct (Count)
system.cpu0.branchPred.tage.altMatchProviderCorrect           65                       # Number of times TAGE Alt Match is the provider and the prediction is correct (Count)
system.cpu0.branchPred.tage.bimodalAltMatchProviderCorrect           73                       # Number of times TAGE Alt Match is the bimodal and it is the provider and the prediction is correct (Count)
system.cpu0.branchPred.tage.bimodalProviderCorrect      1064363                       # Number of times there are no hits on the TAGE tables and the bimodal prediction is correct (Count)
system.cpu0.branchPred.tage.longestMatchProviderWrong           44                       # Number of times TAGE Longest Match is the provider and the prediction is wrong (Count)
system.cpu0.branchPred.tage.altMatchProviderWrong           20                       # Number of times TAGE Alt Match is the provider and the prediction is wrong (Count)
system.cpu0.branchPred.tage.bimodalAltMatchProviderWrong           32                       # Number of times TAGE Alt Match is the bimodal and it is the provider and the prediction is wrong (Count)
system.cpu0.branchPred.tage.bimodalProviderWrong          306                       # Number of times there are no hits on the TAGE tables and the bimodal prediction is wrong (Count)
system.cpu0.branchPred.tage.altMatchProviderWouldHaveHit            9                       # Number of times TAGE Longest Match is the provider, the prediction is wrong and Alt Match prediction was correct (Count)
system.cpu0.branchPred.tage.longestMatchProviderWouldHaveHit           36                       # Number of times TAGE Alt Match is the provider, the prediction is wrong and Longest Match prediction was correct (Count)
system.cpu0.branchPred.tage.longestMatchProvider::0            0                       # TAGE provider for longest match (Count)
system.cpu0.branchPred.tage.longestMatchProvider::1      1049656                       # TAGE provider for longest match (Count)
system.cpu0.branchPred.tage.longestMatchProvider::2         1336                       # TAGE provider for longest match (Count)
system.cpu0.branchPred.tage.longestMatchProvider::3         1414                       # TAGE provider for longest match (Count)
system.cpu0.branchPred.tage.longestMatchProvider::4       387961                       # TAGE provider for longest match (Count)
system.cpu0.branchPred.tage.longestMatchProvider::5          478                       # TAGE provider for longest match (Count)
system.cpu0.branchPred.tage.longestMatchProvider::6           77                       # TAGE provider for longest match (Count)
system.cpu0.branchPred.tage.longestMatchProvider::7          426                       # TAGE provider for longest match (Count)
system.cpu0.branchPred.tage.longestMatchProvider::8           48                       # TAGE provider for longest match (Count)
system.cpu0.branchPred.tage.longestMatchProvider::9           81                       # TAGE provider for longest match (Count)
system.cpu0.branchPred.tage.longestMatchProvider::10          331                       # TAGE provider for longest match (Count)
system.cpu0.branchPred.tage.longestMatchProvider::11            1                       # TAGE provider for longest match (Count)
system.cpu0.branchPred.tage.longestMatchProvider::12           74                       # TAGE provider for longest match (Count)
system.cpu0.branchPred.tage.altMatchProvider::0      1052329                       # TAGE provider for alt match (Count)
system.cpu0.branchPred.tage.altMatchProvider::1       386809                       # TAGE provider for alt match (Count)
system.cpu0.branchPred.tage.altMatchProvider::2         1102                       # TAGE provider for alt match (Count)
system.cpu0.branchPred.tage.altMatchProvider::3          269                       # TAGE provider for alt match (Count)
system.cpu0.branchPred.tage.altMatchProvider::4          383                       # TAGE provider for alt match (Count)
system.cpu0.branchPred.tage.altMatchProvider::5          432                       # TAGE provider for alt match (Count)
system.cpu0.branchPred.tage.altMatchProvider::6           85                       # TAGE provider for alt match (Count)
system.cpu0.branchPred.tage.altMatchProvider::7           74                       # TAGE provider for alt match (Count)
system.cpu0.branchPred.tage.altMatchProvider::8          204                       # TAGE provider for alt match (Count)
system.cpu0.branchPred.tage.altMatchProvider::9          122                       # TAGE provider for alt match (Count)
system.cpu0.branchPred.tage.altMatchProvider::10           74                       # TAGE provider for alt match (Count)
system.cpu0.branchPred.tage.altMatchProvider::11            0                       # TAGE provider for alt match (Count)
system.cpu0.branchPred.tage.altMatchProvider::12            0                       # TAGE provider for alt match (Count)
system.cpu0.commit.commitSquashedInsts        2772735                       # The number of squashed insts skipped by commit (Count)
system.cpu0.commit.commitNonSpecStalls             42                       # The number of times commit has been forced to stall to communicate backwards (Count)
system.cpu0.commit.branchMispredicts              540                       # The number of times a branch was mispredicted (Count)
system.cpu0.commit.numCommittedDist::samples    457953585                       # Number of insts commited each cycle (Count)
system.cpu0.commit.numCommittedDist::mean     0.060173                       # Number of insts commited each cycle (Count)
system.cpu0.commit.numCommittedDist::stdev     0.438321                       # Number of insts commited each cycle (Count)
system.cpu0.commit.numCommittedDist::underflows            0      0.00%      0.00% # Number of insts commited each cycle (Count)
system.cpu0.commit.numCommittedDist::0      447661139     97.75%     97.75% # Number of insts commited each cycle (Count)
system.cpu0.commit.numCommittedDist::1        3031764      0.66%     98.41% # Number of insts commited each cycle (Count)
system.cpu0.commit.numCommittedDist::2         318407      0.07%     98.48% # Number of insts commited each cycle (Count)
system.cpu0.commit.numCommittedDist::3        4464718      0.97%     99.46% # Number of insts commited each cycle (Count)
system.cpu0.commit.numCommittedDist::4        1961193      0.43%     99.89% # Number of insts commited each cycle (Count)
system.cpu0.commit.numCommittedDist::5         493421      0.11%     99.99% # Number of insts commited each cycle (Count)
system.cpu0.commit.numCommittedDist::6            326      0.00%    100.00% # Number of insts commited each cycle (Count)
system.cpu0.commit.numCommittedDist::7           1275      0.00%    100.00% # Number of insts commited each cycle (Count)
system.cpu0.commit.numCommittedDist::8          21342      0.00%    100.00% # Number of insts commited each cycle (Count)
system.cpu0.commit.numCommittedDist::overflows            0      0.00%    100.00% # Number of insts commited each cycle (Count)
system.cpu0.commit.numCommittedDist::min_value            0                       # Number of insts commited each cycle (Count)
system.cpu0.commit.numCommittedDist::max_value            8                       # Number of insts commited each cycle (Count)
system.cpu0.commit.numCommittedDist::total    457953585                       # Number of insts commited each cycle (Count)
system.cpu0.commit.amos                             0                       # Number of atomic instructions committed (Count)
system.cpu0.commit.membars                         28                       # Number of memory barriers committed (Count)
system.cpu0.commit.functionCalls                 2307                       # Number of function calls committed. (Count)
system.cpu0.commit.committedInstType_0::No_OpClass          250      0.00%      0.00% # Class of committed instruction (Count)
system.cpu0.commit.committedInstType_0::IntAlu     20074104     72.85%     72.85% # Class of committed instruction (Count)
system.cpu0.commit.committedInstType_0::IntMult           41      0.00%     72.85% # Class of committed instruction (Count)
system.cpu0.commit.committedInstType_0::IntDiv           56      0.00%     72.85% # Class of committed instruction (Count)
system.cpu0.commit.committedInstType_0::FloatAdd          146      0.00%     72.85% # Class of committed instruction (Count)
system.cpu0.commit.committedInstType_0::FloatCmp            0      0.00%     72.85% # Class of committed instruction (Count)
system.cpu0.commit.committedInstType_0::FloatCvt            0      0.00%     72.85% # Class of committed instruction (Count)
system.cpu0.commit.committedInstType_0::FloatMult            0      0.00%     72.85% # Class of committed instruction (Count)
system.cpu0.commit.committedInstType_0::FloatMultAcc            0      0.00%     72.85% # Class of committed instruction (Count)
system.cpu0.commit.committedInstType_0::FloatDiv            0      0.00%     72.85% # Class of committed instruction (Count)
system.cpu0.commit.committedInstType_0::FloatMisc            0      0.00%     72.85% # Class of committed instruction (Count)
system.cpu0.commit.committedInstType_0::FloatSqrt            0      0.00%     72.85% # Class of committed instruction (Count)
system.cpu0.commit.committedInstType_0::SimdAdd           10      0.00%     72.85% # Class of committed instruction (Count)
system.cpu0.commit.committedInstType_0::SimdAddAcc            0      0.00%     72.85% # Class of committed instruction (Count)
system.cpu0.commit.committedInstType_0::SimdAlu          237      0.00%     72.85% # Class of committed instruction (Count)
system.cpu0.commit.committedInstType_0::SimdCmp            4      0.00%     72.85% # Class of committed instruction (Count)
system.cpu0.commit.committedInstType_0::SimdCvt           76      0.00%     72.85% # Class of committed instruction (Count)
system.cpu0.commit.committedInstType_0::SimdMisc          235      0.00%     72.85% # Class of committed instruction (Count)
system.cpu0.commit.committedInstType_0::SimdMult            0      0.00%     72.85% # Class of committed instruction (Count)
system.cpu0.commit.committedInstType_0::SimdMultAcc            0      0.00%     72.85% # Class of committed instruction (Count)
system.cpu0.commit.committedInstType_0::SimdMatMultAcc            0      0.00%     72.85% # Class of committed instruction (Count)
system.cpu0.commit.committedInstType_0::SimdShift            3      0.00%     72.85% # Class of committed instruction (Count)
system.cpu0.commit.committedInstType_0::SimdShiftAcc            0      0.00%     72.85% # Class of committed instruction (Count)
system.cpu0.commit.committedInstType_0::SimdDiv            0      0.00%     72.85% # Class of committed instruction (Count)
system.cpu0.commit.committedInstType_0::SimdSqrt            0      0.00%     72.85% # Class of committed instruction (Count)
system.cpu0.commit.committedInstType_0::SimdFloatAdd            0      0.00%     72.85% # Class of committed instruction (Count)
system.cpu0.commit.committedInstType_0::SimdFloatAlu            0      0.00%     72.85% # Class of committed instruction (Count)
system.cpu0.commit.committedInstType_0::SimdFloatCmp            0      0.00%     72.85% # Class of committed instruction (Count)
system.cpu0.commit.committedInstType_0::SimdFloatCvt            0      0.00%     72.85% # Class of committed instruction (Count)
system.cpu0.commit.committedInstType_0::SimdFloatDiv            0      0.00%     72.85% # Class of committed instruction (Count)
system.cpu0.commit.committedInstType_0::SimdFloatMisc            0      0.00%     72.85% # Class of committed instruction (Count)
system.cpu0.commit.committedInstType_0::SimdFloatMult            0      0.00%     72.85% # Class of committed instruction (Count)
system.cpu0.commit.committedInstType_0::SimdFloatMultAcc            0      0.00%     72.85% # Class of committed instruction (Count)
system.cpu0.commit.committedInstType_0::SimdFloatMatMultAcc            0      0.00%     72.85% # Class of committed instruction (Count)
system.cpu0.commit.committedInstType_0::SimdFloatSqrt            0      0.00%     72.85% # Class of committed instruction (Count)
system.cpu0.commit.committedInstType_0::SimdReduceAdd            0      0.00%     72.85% # Class of committed instruction (Count)
system.cpu0.commit.committedInstType_0::SimdReduceAlu            0      0.00%     72.85% # Class of committed instruction (Count)
system.cpu0.commit.committedInstType_0::SimdReduceCmp            0      0.00%     72.85% # Class of committed instruction (Count)
system.cpu0.commit.committedInstType_0::SimdFloatReduceAdd            0      0.00%     72.85% # Class of committed instruction (Count)
system.cpu0.commit.committedInstType_0::SimdFloatReduceCmp            0      0.00%     72.85% # Class of committed instruction (Count)
system.cpu0.commit.committedInstType_0::SimdAes            0      0.00%     72.85% # Class of committed instruction (Count)
system.cpu0.commit.committedInstType_0::SimdAesMix            0      0.00%     72.85% # Class of committed instruction (Count)
system.cpu0.commit.committedInstType_0::SimdSha1Hash            0      0.00%     72.85% # Class of committed instruction (Count)
system.cpu0.commit.committedInstType_0::SimdSha1Hash2            0      0.00%     72.85% # Class of committed instruction (Count)
system.cpu0.commit.committedInstType_0::SimdSha256Hash            0      0.00%     72.85% # Class of committed instruction (Count)
system.cpu0.commit.committedInstType_0::SimdSha256Hash2            0      0.00%     72.85% # Class of committed instruction (Count)
system.cpu0.commit.committedInstType_0::SimdShaSigma2            0      0.00%     72.85% # Class of committed instruction (Count)
system.cpu0.commit.committedInstType_0::SimdShaSigma3            0      0.00%     72.85% # Class of committed instruction (Count)
system.cpu0.commit.committedInstType_0::SimdPredAlu            0      0.00%     72.85% # Class of committed instruction (Count)
system.cpu0.commit.committedInstType_0::Matrix            0      0.00%     72.85% # Class of committed instruction (Count)
system.cpu0.commit.committedInstType_0::MatrixMov            0      0.00%     72.85% # Class of committed instruction (Count)
system.cpu0.commit.committedInstType_0::MatrixOP            0      0.00%     72.85% # Class of committed instruction (Count)
system.cpu0.commit.committedInstType_0::MemRead      2502668      9.08%     81.93% # Class of committed instruction (Count)
system.cpu0.commit.committedInstType_0::MemWrite      4977757     18.06%    100.00% # Class of committed instruction (Count)
system.cpu0.commit.committedInstType_0::FloatMemRead          125      0.00%    100.00% # Class of committed instruction (Count)
system.cpu0.commit.committedInstType_0::FloatMemWrite          514      0.00%    100.00% # Class of committed instruction (Count)
system.cpu0.commit.committedInstType_0::IprAccess            0      0.00%    100.00% # Class of committed instruction (Count)
system.cpu0.commit.committedInstType_0::InstPrefetch            0      0.00%    100.00% # Class of committed instruction (Count)
system.cpu0.commit.committedInstType_0::VectorUnitStrideLoad            0      0.00%    100.00% # Class of committed instruction (Count)
system.cpu0.commit.committedInstType_0::VectorUnitStrideStore            0      0.00%    100.00% # Class of committed instruction (Count)
system.cpu0.commit.committedInstType_0::VectorUnitStrideMaskLoad            0      0.00%    100.00% # Class of committed instruction (Count)
system.cpu0.commit.committedInstType_0::VectorUnitStrideMaskStore            0      0.00%    100.00% # Class of committed instruction (Count)
system.cpu0.commit.committedInstType_0::VectorStridedLoad            0      0.00%    100.00% # Class of committed instruction (Count)
system.cpu0.commit.committedInstType_0::VectorStridedStore            0      0.00%    100.00% # Class of committed instruction (Count)
system.cpu0.commit.committedInstType_0::VectorIndexedLoad            0      0.00%    100.00% # Class of committed instruction (Count)
system.cpu0.commit.committedInstType_0::VectorIndexedStore            0      0.00%    100.00% # Class of committed instruction (Count)
system.cpu0.commit.committedInstType_0::VectorUnitStrideFaultOnlyFirstLoad            0      0.00%    100.00% # Class of committed instruction (Count)
system.cpu0.commit.committedInstType_0::VectorWholeRegisterLoad            0      0.00%    100.00% # Class of committed instruction (Count)
system.cpu0.commit.committedInstType_0::VectorWholeRegisterStore            0      0.00%    100.00% # Class of committed instruction (Count)
system.cpu0.commit.committedInstType_0::VectorIntegerArith            0      0.00%    100.00% # Class of committed instruction (Count)
system.cpu0.commit.committedInstType_0::VectorFloatArith            0      0.00%    100.00% # Class of committed instruction (Count)
system.cpu0.commit.committedInstType_0::VectorFloatConvert            0      0.00%    100.00% # Class of committed instruction (Count)
system.cpu0.commit.committedInstType_0::VectorIntegerReduce            0      0.00%    100.00% # Class of committed instruction (Count)
system.cpu0.commit.committedInstType_0::VectorFloatReduce            0      0.00%    100.00% # Class of committed instruction (Count)
system.cpu0.commit.committedInstType_0::VectorMisc            0      0.00%    100.00% # Class of committed instruction (Count)
system.cpu0.commit.committedInstType_0::VectorIntegerExtension            0      0.00%    100.00% # Class of committed instruction (Count)
system.cpu0.commit.committedInstType_0::VectorConfig            0      0.00%    100.00% # Class of committed instruction (Count)
system.cpu0.commit.committedInstType_0::total     27556226                       # Class of committed instruction (Count)
system.cpu0.commit.commitEligibleSamples        21342                       # number cycles where commit BW limit reached (Cycle)
system.cpu0.commitStats0.numInsts            20000000                       # Number of instructions committed (thread level) (Count)
system.cpu0.commitStats0.numOps              27556226                       # Number of ops (including micro ops) committed (thread level) (Count)
system.cpu0.commitStats0.numInstsNotNOP      20000000                       # Number of instructions committed excluding NOPs or prefetches (Count)
system.cpu0.commitStats0.numOpsNotNOP        27556226                       # Number of Ops (including micro ops) Simulated (Count)
system.cpu0.commitStats0.cpi                22.917204                       # CPI: cycles per instruction (thread level) ((Cycle/Count))
system.cpu0.commitStats0.ipc                 0.043635                       # IPC: instructions per cycle (thread level) ((Count/Cycle))
system.cpu0.commitStats0.numMemRefs           7481064                       # Number of memory references committed (Count)
system.cpu0.commitStats0.numFpInsts              1513                       # Number of float instructions (Count)
system.cpu0.commitStats0.numIntInsts         27555088                       # Number of integer instructions (Count)
system.cpu0.commitStats0.numLoadInsts         2502793                       # Number of load instructions (Count)
system.cpu0.commitStats0.numStoreInsts        4978271                       # Number of store instructions (Count)
system.cpu0.commitStats0.numVecInsts                0                       # Number of vector instructions (Count)
system.cpu0.commitStats0.committedInstType::No_OpClass          250      0.00%      0.00% # Class of committed instruction. (Count)
system.cpu0.commitStats0.committedInstType::IntAlu     20074104     72.85%     72.85% # Class of committed instruction. (Count)
system.cpu0.commitStats0.committedInstType::IntMult           41      0.00%     72.85% # Class of committed instruction. (Count)
system.cpu0.commitStats0.committedInstType::IntDiv           56      0.00%     72.85% # Class of committed instruction. (Count)
system.cpu0.commitStats0.committedInstType::FloatAdd          146      0.00%     72.85% # Class of committed instruction. (Count)
system.cpu0.commitStats0.committedInstType::FloatCmp            0      0.00%     72.85% # Class of committed instruction. (Count)
system.cpu0.commitStats0.committedInstType::FloatCvt            0      0.00%     72.85% # Class of committed instruction. (Count)
system.cpu0.commitStats0.committedInstType::FloatMult            0      0.00%     72.85% # Class of committed instruction. (Count)
system.cpu0.commitStats0.committedInstType::FloatMultAcc            0      0.00%     72.85% # Class of committed instruction. (Count)
system.cpu0.commitStats0.committedInstType::FloatDiv            0      0.00%     72.85% # Class of committed instruction. (Count)
system.cpu0.commitStats0.committedInstType::FloatMisc            0      0.00%     72.85% # Class of committed instruction. (Count)
system.cpu0.commitStats0.committedInstType::FloatSqrt            0      0.00%     72.85% # Class of committed instruction. (Count)
system.cpu0.commitStats0.committedInstType::SimdAdd           10      0.00%     72.85% # Class of committed instruction. (Count)
system.cpu0.commitStats0.committedInstType::SimdAddAcc            0      0.00%     72.85% # Class of committed instruction. (Count)
system.cpu0.commitStats0.committedInstType::SimdAlu          237      0.00%     72.85% # Class of committed instruction. (Count)
system.cpu0.commitStats0.committedInstType::SimdCmp            4      0.00%     72.85% # Class of committed instruction. (Count)
system.cpu0.commitStats0.committedInstType::SimdCvt           76      0.00%     72.85% # Class of committed instruction. (Count)
system.cpu0.commitStats0.committedInstType::SimdMisc          235      0.00%     72.85% # Class of committed instruction. (Count)
system.cpu0.commitStats0.committedInstType::SimdMult            0      0.00%     72.85% # Class of committed instruction. (Count)
system.cpu0.commitStats0.committedInstType::SimdMultAcc            0      0.00%     72.85% # Class of committed instruction. (Count)
system.cpu0.commitStats0.committedInstType::SimdMatMultAcc            0      0.00%     72.85% # Class of committed instruction. (Count)
system.cpu0.commitStats0.committedInstType::SimdShift            3      0.00%     72.85% # Class of committed instruction. (Count)
system.cpu0.commitStats0.committedInstType::SimdShiftAcc            0      0.00%     72.85% # Class of committed instruction. (Count)
system.cpu0.commitStats0.committedInstType::SimdDiv            0      0.00%     72.85% # Class of committed instruction. (Count)
system.cpu0.commitStats0.committedInstType::SimdSqrt            0      0.00%     72.85% # Class of committed instruction. (Count)
system.cpu0.commitStats0.committedInstType::SimdFloatAdd            0      0.00%     72.85% # Class of committed instruction. (Count)
system.cpu0.commitStats0.committedInstType::SimdFloatAlu            0      0.00%     72.85% # Class of committed instruction. (Count)
system.cpu0.commitStats0.committedInstType::SimdFloatCmp            0      0.00%     72.85% # Class of committed instruction. (Count)
system.cpu0.commitStats0.committedInstType::SimdFloatCvt            0      0.00%     72.85% # Class of committed instruction. (Count)
system.cpu0.commitStats0.committedInstType::SimdFloatDiv            0      0.00%     72.85% # Class of committed instruction. (Count)
system.cpu0.commitStats0.committedInstType::SimdFloatMisc            0      0.00%     72.85% # Class of committed instruction. (Count)
system.cpu0.commitStats0.committedInstType::SimdFloatMult            0      0.00%     72.85% # Class of committed instruction. (Count)
system.cpu0.commitStats0.committedInstType::SimdFloatMultAcc            0      0.00%     72.85% # Class of committed instruction. (Count)
system.cpu0.commitStats0.committedInstType::SimdFloatMatMultAcc            0      0.00%     72.85% # Class of committed instruction. (Count)
system.cpu0.commitStats0.committedInstType::SimdFloatSqrt            0      0.00%     72.85% # Class of committed instruction. (Count)
system.cpu0.commitStats0.committedInstType::SimdReduceAdd            0      0.00%     72.85% # Class of committed instruction. (Count)
system.cpu0.commitStats0.committedInstType::SimdReduceAlu            0      0.00%     72.85% # Class of committed instruction. (Count)
system.cpu0.commitStats0.committedInstType::SimdReduceCmp            0      0.00%     72.85% # Class of committed instruction. (Count)
system.cpu0.commitStats0.committedInstType::SimdFloatReduceAdd            0      0.00%     72.85% # Class of committed instruction. (Count)
system.cpu0.commitStats0.committedInstType::SimdFloatReduceCmp            0      0.00%     72.85% # Class of committed instruction. (Count)
system.cpu0.commitStats0.committedInstType::SimdAes            0      0.00%     72.85% # Class of committed instruction. (Count)
system.cpu0.commitStats0.committedInstType::SimdAesMix            0      0.00%     72.85% # Class of committed instruction. (Count)
system.cpu0.commitStats0.committedInstType::SimdSha1Hash            0      0.00%     72.85% # Class of committed instruction. (Count)
system.cpu0.commitStats0.committedInstType::SimdSha1Hash2            0      0.00%     72.85% # Class of committed instruction. (Count)
system.cpu0.commitStats0.committedInstType::SimdSha256Hash            0      0.00%     72.85% # Class of committed instruction. (Count)
system.cpu0.commitStats0.committedInstType::SimdSha256Hash2            0      0.00%     72.85% # Class of committed instruction. (Count)
system.cpu0.commitStats0.committedInstType::SimdShaSigma2            0      0.00%     72.85% # Class of committed instruction. (Count)
system.cpu0.commitStats0.committedInstType::SimdShaSigma3            0      0.00%     72.85% # Class of committed instruction. (Count)
system.cpu0.commitStats0.committedInstType::SimdPredAlu            0      0.00%     72.85% # Class of committed instruction. (Count)
system.cpu0.commitStats0.committedInstType::Matrix            0      0.00%     72.85% # Class of committed instruction. (Count)
system.cpu0.commitStats0.committedInstType::MatrixMov            0      0.00%     72.85% # Class of committed instruction. (Count)
system.cpu0.commitStats0.committedInstType::MatrixOP            0      0.00%     72.85% # Class of committed instruction. (Count)
system.cpu0.commitStats0.committedInstType::MemRead      2502668      9.08%     81.93% # Class of committed instruction. (Count)
system.cpu0.commitStats0.committedInstType::MemWrite      4977757     18.06%    100.00% # Class of committed instruction. (Count)
system.cpu0.commitStats0.committedInstType::FloatMemRead          125      0.00%    100.00% # Class of committed instruction. (Count)
system.cpu0.commitStats0.committedInstType::FloatMemWrite          514      0.00%    100.00% # Class of committed instruction. (Count)
system.cpu0.commitStats0.committedInstType::IprAccess            0      0.00%    100.00% # Class of committed instruction. (Count)
system.cpu0.commitStats0.committedInstType::InstPrefetch            0      0.00%    100.00% # Class of committed instruction. (Count)
system.cpu0.commitStats0.committedInstType::VectorUnitStrideLoad            0      0.00%    100.00% # Class of committed instruction. (Count)
system.cpu0.commitStats0.committedInstType::VectorUnitStrideStore            0      0.00%    100.00% # Class of committed instruction. (Count)
system.cpu0.commitStats0.committedInstType::VectorUnitStrideMaskLoad            0      0.00%    100.00% # Class of committed instruction. (Count)
system.cpu0.commitStats0.committedInstType::VectorUnitStrideMaskStore            0      0.00%    100.00% # Class of committed instruction. (Count)
system.cpu0.commitStats0.committedInstType::VectorStridedLoad            0      0.00%    100.00% # Class of committed instruction. (Count)
system.cpu0.commitStats0.committedInstType::VectorStridedStore            0      0.00%    100.00% # Class of committed instruction. (Count)
system.cpu0.commitStats0.committedInstType::VectorIndexedLoad            0      0.00%    100.00% # Class of committed instruction. (Count)
system.cpu0.commitStats0.committedInstType::VectorIndexedStore            0      0.00%    100.00% # Class of committed instruction. (Count)
system.cpu0.commitStats0.committedInstType::VectorUnitStrideFaultOnlyFirstLoad            0      0.00%    100.00% # Class of committed instruction. (Count)
system.cpu0.commitStats0.committedInstType::VectorWholeRegisterLoad            0      0.00%    100.00% # Class of committed instruction. (Count)
system.cpu0.commitStats0.committedInstType::VectorWholeRegisterStore            0      0.00%    100.00% # Class of committed instruction. (Count)
system.cpu0.commitStats0.committedInstType::VectorIntegerArith            0      0.00%    100.00% # Class of committed instruction. (Count)
system.cpu0.commitStats0.committedInstType::VectorFloatArith            0      0.00%    100.00% # Class of committed instruction. (Count)
system.cpu0.commitStats0.committedInstType::VectorFloatConvert            0      0.00%    100.00% # Class of committed instruction. (Count)
system.cpu0.commitStats0.committedInstType::VectorIntegerReduce            0      0.00%    100.00% # Class of committed instruction. (Count)
system.cpu0.commitStats0.committedInstType::VectorFloatReduce            0      0.00%    100.00% # Class of committed instruction. (Count)
system.cpu0.commitStats0.committedInstType::VectorMisc            0      0.00%    100.00% # Class of committed instruction. (Count)
system.cpu0.commitStats0.committedInstType::VectorIntegerExtension            0      0.00%    100.00% # Class of committed instruction. (Count)
system.cpu0.commitStats0.committedInstType::VectorConfig            0      0.00%    100.00% # Class of committed instruction. (Count)
system.cpu0.commitStats0.committedInstType::total     27556226                       # Class of committed instruction. (Count)
system.cpu0.commitStats0.committedControl::IsControl      2516676                       # Class of control type instructions committed (Count)
system.cpu0.commitStats0.committedControl::IsDirectControl      2512216                       # Class of control type instructions committed (Count)
system.cpu0.commitStats0.committedControl::IsIndirectControl         4460                       # Class of control type instructions committed (Count)
system.cpu0.commitStats0.committedControl::IsCondControl      2506658                       # Class of control type instructions committed (Count)
system.cpu0.commitStats0.committedControl::IsUncondControl        10018                       # Class of control type instructions committed (Count)
system.cpu0.commitStats0.committedControl::IsCall         2307                       # Class of control type instructions committed (Count)
system.cpu0.commitStats0.committedControl::IsReturn         2304                       # Class of control type instructions committed (Count)
system.cpu0.dcache.demandHits::cpu0.data      2508114                       # number of demand (read+write) hits (Count)
system.cpu0.dcache.demandHits::total          2508114                       # number of demand (read+write) hits (Count)
system.cpu0.dcache.overallHits::cpu0.data      2508114                       # number of overall hits (Count)
system.cpu0.dcache.overallHits::total         2508114                       # number of overall hits (Count)
system.cpu0.dcache.demandMisses::cpu0.data      2485885                       # number of demand (read+write) misses (Count)
system.cpu0.dcache.demandMisses::total        2485885                       # number of demand (read+write) misses (Count)
system.cpu0.dcache.overallMisses::cpu0.data      2485885                       # number of overall misses (Count)
system.cpu0.dcache.overallMisses::total       2485885                       # number of overall misses (Count)
system.cpu0.dcache.demandMissLatency::cpu0.data 226369192500                       # number of demand (read+write) miss ticks (Tick)
system.cpu0.dcache.demandMissLatency::total 226369192500                       # number of demand (read+write) miss ticks (Tick)
system.cpu0.dcache.overallMissLatency::cpu0.data 226369192500                       # number of overall miss ticks (Tick)
system.cpu0.dcache.overallMissLatency::total 226369192500                       # number of overall miss ticks (Tick)
system.cpu0.dcache.demandAccesses::cpu0.data      4993999                       # number of demand (read+write) accesses (Count)
system.cpu0.dcache.demandAccesses::total      4993999                       # number of demand (read+write) accesses (Count)
system.cpu0.dcache.overallAccesses::cpu0.data      4993999                       # number of overall (read+write) accesses (Count)
system.cpu0.dcache.overallAccesses::total      4993999                       # number of overall (read+write) accesses (Count)
system.cpu0.dcache.demandMissRate::cpu0.data     0.497774                       # miss rate for demand accesses (Ratio)
system.cpu0.dcache.demandMissRate::total     0.497774                       # miss rate for demand accesses (Ratio)
system.cpu0.dcache.overallMissRate::cpu0.data     0.497774                       # miss rate for overall accesses (Ratio)
system.cpu0.dcache.overallMissRate::total     0.497774                       # miss rate for overall accesses (Ratio)
system.cpu0.dcache.demandAvgMissLatency::cpu0.data 91061.811990                       # average overall miss latency in ticks ((Tick/Count))
system.cpu0.dcache.demandAvgMissLatency::total 91061.811990                       # average overall miss latency in ticks ((Tick/Count))
system.cpu0.dcache.overallAvgMissLatency::cpu0.data 91061.811990                       # average overall miss latency ((Tick/Count))
system.cpu0.dcache.overallAvgMissLatency::total 91061.811990                       # average overall miss latency ((Tick/Count))
system.cpu0.dcache.blockedCycles::no_mshrs          511                       # number of cycles access was blocked (Cycle)
system.cpu0.dcache.blockedCycles::no_targets            0                       # number of cycles access was blocked (Cycle)
system.cpu0.dcache.blockedCauses::no_mshrs           10                       # number of times access was blocked (Count)
system.cpu0.dcache.blockedCauses::no_targets            0                       # number of times access was blocked (Count)
system.cpu0.dcache.avgBlocked::no_mshrs     51.100000                       # average number of cycles each access was blocked ((Cycle/Count))
system.cpu0.dcache.avgBlocked::no_targets          nan                       # average number of cycles each access was blocked ((Cycle/Count))
system.cpu0.dcache.writebacks::writebacks      2483880                       # number of writebacks (Count)
system.cpu0.dcache.writebacks::total          2483880                       # number of writebacks (Count)
system.cpu0.dcache.demandMshrHits::cpu0.data         1040                       # number of demand (read+write) MSHR hits (Count)
system.cpu0.dcache.demandMshrHits::total         1040                       # number of demand (read+write) MSHR hits (Count)
system.cpu0.dcache.overallMshrHits::cpu0.data         1040                       # number of overall MSHR hits (Count)
system.cpu0.dcache.overallMshrHits::total         1040                       # number of overall MSHR hits (Count)
system.cpu0.dcache.demandMshrMisses::cpu0.data      2484845                       # number of demand (read+write) MSHR misses (Count)
system.cpu0.dcache.demandMshrMisses::total      2484845                       # number of demand (read+write) MSHR misses (Count)
system.cpu0.dcache.overallMshrMisses::cpu0.data      2484845                       # number of overall MSHR misses (Count)
system.cpu0.dcache.overallMshrMisses::total      2484845                       # number of overall MSHR misses (Count)
system.cpu0.dcache.demandMshrMissLatency::cpu0.data 223804443000                       # number of demand (read+write) MSHR miss ticks (Tick)
system.cpu0.dcache.demandMshrMissLatency::total 223804443000                       # number of demand (read+write) MSHR miss ticks (Tick)
system.cpu0.dcache.overallMshrMissLatency::cpu0.data 223804443000                       # number of overall MSHR miss ticks (Tick)
system.cpu0.dcache.overallMshrMissLatency::total 223804443000                       # number of overall MSHR miss ticks (Tick)
system.cpu0.dcache.demandMshrMissRate::cpu0.data     0.497566                       # mshr miss ratio for demand accesses (Ratio)
system.cpu0.dcache.demandMshrMissRate::total     0.497566                       # mshr miss ratio for demand accesses (Ratio)
system.cpu0.dcache.overallMshrMissRate::cpu0.data     0.497566                       # mshr miss ratio for overall accesses (Ratio)
system.cpu0.dcache.overallMshrMissRate::total     0.497566                       # mshr miss ratio for overall accesses (Ratio)
system.cpu0.dcache.demandAvgMshrMissLatency::cpu0.data 90067.768010                       # average overall mshr miss latency ((Tick/Count))
system.cpu0.dcache.demandAvgMshrMissLatency::total 90067.768010                       # average overall mshr miss latency ((Tick/Count))
system.cpu0.dcache.overallAvgMshrMissLatency::cpu0.data 90067.768010                       # average overall mshr miss latency ((Tick/Count))
system.cpu0.dcache.overallAvgMshrMissLatency::total 90067.768010                       # average overall mshr miss latency ((Tick/Count))
system.cpu0.dcache.replacements               2484331                       # number of replacements (Count)
system.cpu0.dcache.LockedRMWReadReq.hits::cpu0.data           13                       # number of LockedRMWReadReq hits (Count)
system.cpu0.dcache.LockedRMWReadReq.hits::total           13                       # number of LockedRMWReadReq hits (Count)
system.cpu0.dcache.LockedRMWReadReq.misses::cpu0.data            1                       # number of LockedRMWReadReq misses (Count)
system.cpu0.dcache.LockedRMWReadReq.misses::total            1                       # number of LockedRMWReadReq misses (Count)
system.cpu0.dcache.LockedRMWReadReq.missLatency::cpu0.data        96500                       # number of LockedRMWReadReq miss ticks (Tick)
system.cpu0.dcache.LockedRMWReadReq.missLatency::total        96500                       # number of LockedRMWReadReq miss ticks (Tick)
system.cpu0.dcache.LockedRMWReadReq.accesses::cpu0.data           14                       # number of LockedRMWReadReq accesses(hits+misses) (Count)
system.cpu0.dcache.LockedRMWReadReq.accesses::total           14                       # number of LockedRMWReadReq accesses(hits+misses) (Count)
system.cpu0.dcache.LockedRMWReadReq.missRate::cpu0.data     0.071429                       # miss rate for LockedRMWReadReq accesses (Ratio)
system.cpu0.dcache.LockedRMWReadReq.missRate::total     0.071429                       # miss rate for LockedRMWReadReq accesses (Ratio)
system.cpu0.dcache.LockedRMWReadReq.avgMissLatency::cpu0.data        96500                       # average LockedRMWReadReq miss latency ((Tick/Count))
system.cpu0.dcache.LockedRMWReadReq.avgMissLatency::total        96500                       # average LockedRMWReadReq miss latency ((Tick/Count))
system.cpu0.dcache.LockedRMWReadReq.mshrMisses::cpu0.data            1                       # number of LockedRMWReadReq MSHR misses (Count)
system.cpu0.dcache.LockedRMWReadReq.mshrMisses::total            1                       # number of LockedRMWReadReq MSHR misses (Count)
system.cpu0.dcache.LockedRMWReadReq.mshrMissLatency::cpu0.data       244000                       # number of LockedRMWReadReq MSHR miss ticks (Tick)
system.cpu0.dcache.LockedRMWReadReq.mshrMissLatency::total       244000                       # number of LockedRMWReadReq MSHR miss ticks (Tick)
system.cpu0.dcache.LockedRMWReadReq.mshrMissRate::cpu0.data     0.071429                       # mshr miss rate for LockedRMWReadReq accesses (Ratio)
system.cpu0.dcache.LockedRMWReadReq.mshrMissRate::total     0.071429                       # mshr miss rate for LockedRMWReadReq accesses (Ratio)
system.cpu0.dcache.LockedRMWReadReq.avgMshrMissLatency::cpu0.data       244000                       # average LockedRMWReadReq mshr miss latency ((Tick/Count))
system.cpu0.dcache.LockedRMWReadReq.avgMshrMissLatency::total       244000                       # average LockedRMWReadReq mshr miss latency ((Tick/Count))
system.cpu0.dcache.LockedRMWWriteReq.hits::cpu0.data           14                       # number of LockedRMWWriteReq hits (Count)
system.cpu0.dcache.LockedRMWWriteReq.hits::total           14                       # number of LockedRMWWriteReq hits (Count)
system.cpu0.dcache.LockedRMWWriteReq.accesses::cpu0.data           14                       # number of LockedRMWWriteReq accesses(hits+misses) (Count)
system.cpu0.dcache.LockedRMWWriteReq.accesses::total           14                       # number of LockedRMWWriteReq accesses(hits+misses) (Count)
system.cpu0.dcache.ReadReq.hits::cpu0.data        13986                       # number of ReadReq hits (Count)
system.cpu0.dcache.ReadReq.hits::total          13986                       # number of ReadReq hits (Count)
system.cpu0.dcache.ReadReq.misses::cpu0.data         1787                       # number of ReadReq misses (Count)
system.cpu0.dcache.ReadReq.misses::total         1787                       # number of ReadReq misses (Count)
system.cpu0.dcache.ReadReq.missLatency::cpu0.data    138277000                       # number of ReadReq miss ticks (Tick)
system.cpu0.dcache.ReadReq.missLatency::total    138277000                       # number of ReadReq miss ticks (Tick)
system.cpu0.dcache.ReadReq.accesses::cpu0.data        15773                       # number of ReadReq accesses(hits+misses) (Count)
system.cpu0.dcache.ReadReq.accesses::total        15773                       # number of ReadReq accesses(hits+misses) (Count)
system.cpu0.dcache.ReadReq.missRate::cpu0.data     0.113295                       # miss rate for ReadReq accesses (Ratio)
system.cpu0.dcache.ReadReq.missRate::total     0.113295                       # miss rate for ReadReq accesses (Ratio)
system.cpu0.dcache.ReadReq.avgMissLatency::cpu0.data 77379.406827                       # average ReadReq miss latency ((Tick/Count))
system.cpu0.dcache.ReadReq.avgMissLatency::total 77379.406827                       # average ReadReq miss latency ((Tick/Count))
system.cpu0.dcache.ReadReq.mshrHits::cpu0.data         1040                       # number of ReadReq MSHR hits (Count)
system.cpu0.dcache.ReadReq.mshrHits::total         1040                       # number of ReadReq MSHR hits (Count)
system.cpu0.dcache.ReadReq.mshrMisses::cpu0.data          747                       # number of ReadReq MSHR misses (Count)
system.cpu0.dcache.ReadReq.mshrMisses::total          747                       # number of ReadReq MSHR misses (Count)
system.cpu0.dcache.ReadReq.mshrMissLatency::cpu0.data     57624500                       # number of ReadReq MSHR miss ticks (Tick)
system.cpu0.dcache.ReadReq.mshrMissLatency::total     57624500                       # number of ReadReq MSHR miss ticks (Tick)
system.cpu0.dcache.ReadReq.mshrMissRate::cpu0.data     0.047359                       # mshr miss rate for ReadReq accesses (Ratio)
system.cpu0.dcache.ReadReq.mshrMissRate::total     0.047359                       # mshr miss rate for ReadReq accesses (Ratio)
system.cpu0.dcache.ReadReq.avgMshrMissLatency::cpu0.data 77141.231593                       # average ReadReq mshr miss latency ((Tick/Count))
system.cpu0.dcache.ReadReq.avgMshrMissLatency::total 77141.231593                       # average ReadReq mshr miss latency ((Tick/Count))
system.cpu0.dcache.WriteReq.hits::cpu0.data      2494128                       # number of WriteReq hits (Count)
system.cpu0.dcache.WriteReq.hits::total       2494128                       # number of WriteReq hits (Count)
system.cpu0.dcache.WriteReq.misses::cpu0.data      2484098                       # number of WriteReq misses (Count)
system.cpu0.dcache.WriteReq.misses::total      2484098                       # number of WriteReq misses (Count)
system.cpu0.dcache.WriteReq.missLatency::cpu0.data 226230915500                       # number of WriteReq miss ticks (Tick)
system.cpu0.dcache.WriteReq.missLatency::total 226230915500                       # number of WriteReq miss ticks (Tick)
system.cpu0.dcache.WriteReq.accesses::cpu0.data      4978226                       # number of WriteReq accesses(hits+misses) (Count)
system.cpu0.dcache.WriteReq.accesses::total      4978226                       # number of WriteReq accesses(hits+misses) (Count)
system.cpu0.dcache.WriteReq.missRate::cpu0.data     0.498993                       # miss rate for WriteReq accesses (Ratio)
system.cpu0.dcache.WriteReq.missRate::total     0.498993                       # miss rate for WriteReq accesses (Ratio)
system.cpu0.dcache.WriteReq.avgMissLatency::cpu0.data 91071.654782                       # average WriteReq miss latency ((Tick/Count))
system.cpu0.dcache.WriteReq.avgMissLatency::total 91071.654782                       # average WriteReq miss latency ((Tick/Count))
system.cpu0.dcache.WriteReq.mshrMisses::cpu0.data      2484098                       # number of WriteReq MSHR misses (Count)
system.cpu0.dcache.WriteReq.mshrMisses::total      2484098                       # number of WriteReq MSHR misses (Count)
system.cpu0.dcache.WriteReq.mshrMissLatency::cpu0.data 223746818500                       # number of WriteReq MSHR miss ticks (Tick)
system.cpu0.dcache.WriteReq.mshrMissLatency::total 223746818500                       # number of WriteReq MSHR miss ticks (Tick)
system.cpu0.dcache.WriteReq.mshrMissRate::cpu0.data     0.498993                       # mshr miss rate for WriteReq accesses (Ratio)
system.cpu0.dcache.WriteReq.mshrMissRate::total     0.498993                       # mshr miss rate for WriteReq accesses (Ratio)
system.cpu0.dcache.WriteReq.avgMshrMissLatency::cpu0.data 90071.655184                       # average WriteReq mshr miss latency ((Tick/Count))
system.cpu0.dcache.WriteReq.avgMshrMissLatency::total 90071.655184                       # average WriteReq mshr miss latency ((Tick/Count))
system.cpu0.dcache.power_state.pwrStateResidencyTicks::UNDEFINED 229172038000                       # Cumulative time (in ticks) in various power states (Tick)
system.cpu0.dcache.tags.tagsInUse          511.913844                       # Average ticks per tags in use ((Tick/Count))
[...]
system.mem_ctrls.dram.bytesPerActivate::mean   833.821179                       # Bytes accessed per row activation (Byte)
system.mem_ctrls.dram.bytesPerActivate::gmean   724.817096                       # Bytes accessed per row activation (Byte)
system.mem_ctrls.dram.bytesPerActivate::stdev   299.562672                       # Bytes accessed per row activation (Byte)
system.mem_ctrls.dram.bytesPerActivate::0-127        26080      3.42%      3.42% # Bytes accessed per row activation (Byte)
system.mem_ctrls.dram.bytesPerActivate::128-255        22354      2.94%      6.36% # Bytes accessed per row activation (Byte)
system.mem_ctrls.dram.bytesPerActivate::256-383        48459      6.36%     12.72% # Bytes accessed per row activation (Byte)
system.mem_ctrls.dram.bytesPerActivate::384-511        23422      3.08%     15.80% # Bytes accessed per row activation (Byte)
system.mem_ctrls.dram.bytesPerActivate::512-639        31301      4.11%     19.91% # Bytes accessed per row activation (Byte)
system.mem_ctrls.dram.bytesPerActivate::640-767        41147      5.40%     25.31% # Bytes accessed per row activation (Byte)
system.mem_ctrls.dram.bytesPerActivate::768-895        64136      8.42%     33.73% # Bytes accessed per row activation (Byte)
system.mem_ctrls.dram.bytesPerActivate::896-1023        32312      4.24%     37.97% # Bytes accessed per row activation (Byte)
system.mem_ctrls.dram.bytesPerActivate::1024-1151       472388     62.03%    100.00% # Bytes accessed per row activation (Byte)
system.mem_ctrls.dram.bytesPerActivate::total       761599                       # Bytes accessed per row activation (Byte)
system.mem_ctrls.dram.bytesRead             318126336                       # Total bytes read (Byte)
system.mem_ctrls.dram.bytesWritten          316911488                       # Total bytes written (Byte)
system.mem_ctrls.dram.avgRdBW             1388.155112                       # Average DRAM read bandwidth in MiBytes/s ((Byte/Second))
system.mem_ctrls.dram.avgWrBW             1382.854081                       # Average DRAM write bandwidth in MiBytes/s ((Byte/Second))
system.mem_ctrls.dram.peakBW                 12800.00                       # Theoretical peak bandwidth in MiByte/s ((Byte/Second))
system.mem_ctrls.dram.busUtil                   21.65                       # Data bus utilization in percentage (Ratio)
system.mem_ctrls.dram.busUtilRead               10.84                       # Data bus utilization in percentage for reads (Ratio)
system.mem_ctrls.dram.busUtilWrite              10.80                       # Data bus utilization in percentage for writes (Ratio)
system.mem_ctrls.dram.pageHitRate               92.32                       # Row buffer hit rate, read and write combined (Ratio)
system.mem_ctrls.dram.power_state.pwrStateResidencyTicks::UNDEFINED 229172038000                       # Cumulative time (in ticks) in various power states (Tick)
system.mem_ctrls.dram.rank0.actEnergy      2718483600                       # Energy for activate commands per rank (pJ) (Joule)
system.mem_ctrls.dram.rank0.preEnergy      1444900710                       # Energy for precharge commands per rank (pJ) (Joule)
system.mem_ctrls.dram.rank0.readEnergy    17741457720                       # Energy for read commands per rank (pJ) (Joule)
system.mem_ctrls.dram.rank0.writeEnergy   12922715520                       # Energy for write commands per rank (pJ) (Joule)
system.mem_ctrls.dram.rank0.refreshEnergy 18090084480.000004                       # Energy for refresh commands per rank (pJ) (Joule)
system.mem_ctrls.dram.rank0.actBackEnergy  60251240670                       # Energy for active background per rank (pJ) (Joule)
system.mem_ctrls.dram.rank0.preBackEnergy  37264176000                       # Energy for precharge background per rank (pJ) (Joule)
system.mem_ctrls.dram.rank0.actPowerDownEnergy            0                       # Energy for active power-down per rank (pJ) (Joule)
system.mem_ctrls.dram.rank0.prePowerDownEnergy            0                       # Energy for precharge power-down per rank (pJ) (Joule)
system.mem_ctrls.dram.rank0.selfRefreshEnergy            0                       # Energy for self refresh per rank (pJ) (Joule)
system.mem_ctrls.dram.rank0.totalEnergy  150433058700                       # Total energy per rank (pJ) (Joule)
system.mem_ctrls.dram.rank0.averagePower   656.419780                       # Core power per rank (mW) (Watt)
system.mem_ctrls.dram.rank0.totalIdleTime            0                       # Total Idle time Per DRAM Rank (Tick)
system.mem_ctrls.dram.rank0.pwrStateTime::IDLE  95185474750                       # Time in different power states (Tick)
system.mem_ctrls.dram.rank0.pwrStateTime::REF   7652320000                       # Time in different power states (Tick)
system.mem_ctrls.dram.rank0.pwrStateTime::SREF            0                       # Time in different power states (Tick)
system.mem_ctrls.dram.rank0.pwrStateTime::PRE_PDN            0                       # Time in different power states (Tick)
system.mem_ctrls.dram.rank0.pwrStateTime::ACT 126334243250                       # Time in different power states (Tick)
system.mem_ctrls.dram.rank0.pwrStateTime::ACT_PDN            0                       # Time in different power states (Tick)
system.mem_ctrls.dram.rank1.actEnergy      2719347540                       # Energy for activate commands per rank (pJ) (Joule)
system.mem_ctrls.dram.rank1.preEnergy      1445367495                       # Energy for precharge commands per rank (pJ) (Joule)
system.mem_ctrls.dram.rank1.readEnergy    17749511640                       # Energy for read commands per rank (pJ) (Joule)
system.mem_ctrls.dram.rank1.writeEnergy   12925377720                       # Energy for write commands per rank (pJ) (Joule)
system.mem_ctrls.dram.rank1.refreshEnergy 18090084480.000004                       # Energy for refresh commands per rank (pJ) (Joule)
system.mem_ctrls.dram.rank1.actBackEnergy  60283523190                       # Energy for active background per rank (pJ) (Joule)
system.mem_ctrls.dram.rank1.preBackEnergy  37236990720                       # Energy for precharge background per rank (pJ) (Joule)
system.mem_ctrls.dram.rank1.actPowerDownEnergy            0                       # Energy for active power-down per rank (pJ) (Joule)
system.mem_ctrls.dram.rank1.prePowerDownEnergy            0                       # Energy for precharge power-down per rank (pJ) (Joule)
system.mem_ctrls.dram.rank1.selfRefreshEnergy            0                       # Energy for self refresh per rank (pJ) (Joule)
system.mem_ctrls.dram.rank1.totalEnergy  150450202785                       # Total energy per rank (pJ) (Joule)
system.mem_ctrls.dram.rank1.averagePower   656.494589                       # Core power per rank (mW) (Watt)
system.mem_ctrls.dram.rank1.totalIdleTime            0                       # Total Idle time Per DRAM Rank (Tick)
system.mem_ctrls.dram.rank1.pwrStateTime::IDLE  95112187000                       # Time in different power states (Tick)
system.mem_ctrls.dram.rank1.pwrStateTime::REF   7652320000                       # Time in different power states (Tick)
system.mem_ctrls.dram.rank1.pwrStateTime::SREF            0                       # Time in different power states (Tick)
system.mem_ctrls.dram.rank1.pwrStateTime::PRE_PDN            0                       # Time in different power states (Tick)
system.mem_ctrls.dram.rank1.pwrStateTime::ACT 126407531000                       # Time in different power states (Tick)
system.mem_ctrls.dram.rank1.pwrStateTime::ACT_PDN            0                       # Time in different power states (Tick)
system.mem_ctrls.power_state.pwrStateResidencyTicks::UNDEFINED 229172038000                       # Cumulative time (in ticks) in various power states (Tick)
system.membus.transDist::ReadResp                2588                       # Transaction distribution (Count)
system.membus.transDist::WritebackDirty       4951770                       # Transaction distribution (Count)
system.membus.transDist::CleanEvict              1242                       # Transaction distribution (Count)
system.membus.transDist::ReadExReq            4968136                       # Transaction distribution (Count)
system.membus.transDist::ReadExResp           4968135                       # Transaction distribution (Count)
system.membus.transDist::ReadSharedReq           2588                       # Transaction distribution (Count)
system.membus.pktCount_system.l2.mem_side_port::system.mem_ctrls.port     14894459                       # Packet count per connected requestor and responder (Count)
system.membus.pktCount_system.l2.mem_side_port::total     14894459                       # Packet count per connected requestor and responder (Count)
system.membus.pktCount::total                14894459                       # Packet count per connected requestor and responder (Count)
system.membus.pktSize_system.l2.mem_side_port::system.mem_ctrls.port    635039552                       # Cumulative packet size per connected requestor and responder (Byte)
system.membus.pktSize_system.l2.mem_side_port::total    635039552                       # Cumulative packet size per connected requestor and responder (Byte)
system.membus.pktSize::total                635039552                       # Cumulative packet size per connected requestor and responder (Byte)
system.membus.snoops                                0                       # Total snoops (Count)
system.membus.snoopTraffic                          0                       # Total snoop traffic (Byte)
system.membus.snoopFanout::samples            4970724                       # Request fanout histogram (Count)
system.membus.snoopFanout::mean                     0                       # Request fanout histogram (Count)
system.membus.snoopFanout::stdev                    0                       # Request fanout histogram (Count)
system.membus.snoopFanout::underflows               0      0.00%      0.00% # Request fanout histogram (Count)
system.membus.snoopFanout::0                  4970724    100.00%    100.00% # Request fanout histogram (Count)
system.membus.snoopFanout::1                        0      0.00%    100.00% # Request fanout histogram (Count)
system.membus.snoopFanout::overflows                0      0.00%    100.00% # Request fanout histogram (Count)
system.membus.snoopFanout::min_value                0                       # Request fanout histogram (Count)
system.membus.snoopFanout::max_value                0                       # Request fanout histogram (Count)
system.membus.snoopFanout::total              4970724                       # Request fanout histogram (Count)
system.membus.power_state.pwrStateResidencyTicks::UNDEFINED 229172038000                       # Cumulative time (in ticks) in various power states (Tick)
system.membus.reqLayer4.occupancy         29731568500                       # Layer occupancy (ticks) (Tick)
system.membus.reqLayer4.utilization               0.1                       # Layer utilization (Ratio)
system.membus.respLayer1.occupancy        25819291500                       # Layer occupancy (ticks) (Tick)
system.membus.respLayer1.utilization              0.1                       # Layer utilization (Ratio)
system.membus.snoop_filter.totRequests        9923736                       # Total number of requests made to the snoop filter. (Count)
system.membus.snoop_filter.hitSingleRequests      4953012                       # Number of requests hitting in the snoop filter with a single holder of the requested data. (Count)
system.membus.snoop_filter.hitMultiRequests            0                       # Number of requests hitting in the snoop filter with multiple (>1) holders of the requested data. (Count)
system.membus.snoop_filter.totSnoops                0                       # Total number of snoops made to the snoop filter. (Count)
system.membus.snoop_filter.hitSingleSnoops            0                       # Number of snoops hitting in the snoop filter with a single holder of the requested data. (Count)
system.membus.snoop_filter.hitMultiSnoops            0                       # Number of snoops hitting in the snoop filter with multiple (>1) holders of the requested data. (Count)
system.tol2bus.transDist::ReadResp               2656                       # Transaction distribution (Count)
system.tol2bus.transDist::WritebackDirty      9919462                       # Transaction distribution (Count)
system.tol2bus.transDist::WritebackClean          340                       # Transaction distribution (Count)
system.tol2bus.transDist::CleanEvict             3503                       # Transaction distribution (Count)
system.tol2bus.transDist::UpgradeReq                4                       # Transaction distribution (Count)
system.tol2bus.transDist::UpgradeResp               4                       # Transaction distribution (Count)
system.tol2bus.transDist::ReadExReq           4968150                       # Transaction distribution (Count)
system.tol2bus.transDist::ReadExResp          4968148                       # Transaction distribution (Count)
system.tol2bus.transDist::ReadCleanReq           1158                       # Transaction distribution (Count)
system.tol2bus.transDist::ReadSharedReq          1498                       # Transaction distribution (Count)
system.tol2bus.pktCount_system.cpu0.icache.mem_side_port::system.l2.cpu_side_port         1326                       # Packet count per connected requestor and responder (Count)
system.tol2bus.pktCount_system.cpu0.dcache.mem_side_port::system.l2.cpu_side_port      7454022                       # Packet count per connected requestor and responder (Count)
system.tol2bus.pktCount_system.cpu1.icache.mem_side_port::system.l2.cpu_side_port         1326                       # Packet count per connected requestor and responder (Count)
system.tol2bus.pktCount_system.cpu1.dcache.mem_side_port::system.l2.cpu_side_port      7453902                       # Packet count per connected requestor and responder (Count)
system.tol2bus.pktCount::total               14910576                       # Packet count per connected requestor and responder (Count)
system.tol2bus.pktSize_system.cpu0.icache.mem_side_port::system.l2.cpu_side_port        47808                       # Cumulative packet size per connected requestor and responder (Byte)
system.tol2bus.pktSize_system.cpu0.dcache.mem_side_port::system.l2.cpu_side_port    317998272                       # Cumulative packet size per connected requestor and responder (Byte)
system.tol2bus.pktSize_system.cpu1.icache.mem_side_port::system.l2.cpu_side_port        47808                       # Cumulative packet size per connected requestor and responder (Byte)
system.tol2bus.pktSize_system.cpu1.dcache.mem_side_port::system.l2.cpu_side_port    317991360                       # Cumulative packet size per connected requestor and responder (Byte)
system.tol2bus.pktSize::total               636085248                       # Cumulative packet size per connected requestor and responder (Byte)
system.tol2bus.snoops                         4954347                       # Total snoops (Count)
system.tol2bus.snoopTraffic                 316913536                       # Total snoop traffic (Byte)
system.tol2bus.snoopFanout::samples           9925153                       # Request fanout histogram (Count)
system.tol2bus.snoopFanout::mean             0.000136                       # Request fanout histogram (Count)
system.tol2bus.snoopFanout::stdev            0.011658                       # Request fanout histogram (Count)
system.tol2bus.snoopFanout::underflows              0      0.00%      0.00% # Request fanout histogram (Count)
system.tol2bus.snoopFanout::0                 9923810     99.99%     99.99% # Request fanout histogram (Count)
system.tol2bus.snoopFanout::1                    1341      0.01%    100.00% # Request fanout histogram (Count)
system.tol2bus.snoopFanout::2                       2      0.00%    100.00% # Request fanout histogram (Count)
system.tol2bus.snoopFanout::3                       0      0.00%    100.00% # Request fanout histogram (Count)
system.tol2bus.snoopFanout::4                       0      0.00%    100.00% # Request fanout histogram (Count)
system.tol2bus.snoopFanout::5                       0      0.00%    100.00% # Request fanout histogram (Count)
system.tol2bus.snoopFanout::6                       0      0.00%    100.00% # Request fanout histogram (Count)
system.tol2bus.snoopFanout::7                       0      0.00%    100.00% # Request fanout histogram (Count)
system.tol2bus.snoopFanout::8                       0      0.00%    100.00% # Request fanout histogram (Count)
system.tol2bus.snoopFanout::overflows               0      0.00%    100.00% # Request fanout histogram (Count)
system.tol2bus.snoopFanout::min_value               0                       # Request fanout histogram (Count)
system.tol2bus.snoopFanout::max_value               2                       # Request fanout histogram (Count)
system.tol2bus.snoopFanout::total             9925153                       # Request fanout histogram (Count)
system.tol2bus.power_state.pwrStateResidencyTicks::UNDEFINED 229172038000                       # Cumulative time (in ticks) in various power states (Tick)
system.tol2bus.reqLayer0.occupancy         9937918000                       # Layer occupancy (ticks) (Tick)
system.tol2bus.reqLayer0.utilization              0.0                       # Layer utilization (Ratio)
system.tol2bus.respLayer0.occupancy            868500                       # Layer occupancy (ticks) (Tick)
system.tol2bus.respLayer0.utilization             0.0                       # Layer utilization (Ratio)
system.tol2bus.respLayer1.occupancy        3727265500                       # Layer occupancy (ticks) (Tick)
system.tol2bus.respLayer1.utilization             0.0                       # Layer utilization (Ratio)
system.tol2bus.respLayer4.occupancy            868999                       # Layer occupancy (ticks) (Tick)
system.tol2bus.respLayer4.utilization             0.0                       # Layer utilization (Ratio)
system.tol2bus.respLayer5.occupancy        3727205500                       # Layer occupancy (ticks) (Tick)
system.tol2bus.respLayer5.utilization             0.0                       # Layer utilization (Ratio)
system.tol2bus.snoop_filter.totRequests       9939772                       # Total number of requests made to the snoop filter. (Count)
system.tol2bus.snoop_filter.hitSingleRequests      4968964                       # Number of requests hitting in the snoop filter with a single holder of the requested data. (Count)
system.tol2bus.snoop_filter.hitMultiRequests            8                       # Number of requests hitting in the snoop filter with multiple (>1) holders of the requested data. (Count)
system.tol2bus.snoop_filter.totSnoops            1333                       # Total number of snoops made to the snoop filter. (Count)
system.tol2bus.snoop_filter.hitSingleSnoops         1331                       # Number of snoops hitting in the snoop filter with a single holder of the requested data. (Count)
system.tol2bus.snoop_filter.hitMultiSnoops            2                       # Number of snoops hitting in the snoop filter with multiple (>1) holders of the requested data. (Count)
system.voltage_domain.voltage                       1                       # Voltage in Volts (Volt)
system.workload.inst.arm                            0                       # number of arm instructions executed (Count)
system.workload.inst.quiesce                        0                       # number of quiesce instructions executed (Count)

---------- End Simulation Statistics   ----------
